Version 4
SHEET 1 880 680
WIRE -96 -128 -160 -128
WIRE 48 -128 -16 -128
WIRE -96 16 -160 16
WIRE 48 16 48 -128
WIRE 48 16 -16 16
WIRE 208 48 192 48
WIRE 320 48 288 48
WIRE 528 112 400 112
WIRE -96 160 -160 160
WIRE 48 160 48 16
WIRE 48 160 -16 160
WIRE 192 160 192 48
WIRE 192 160 48 160
WIRE 224 160 192 160
WIRE 320 176 320 48
WIRE 320 176 288 176
WIRE 400 176 400 112
WIRE 400 176 320 176
WIRE 464 176 400 176
WIRE 224 192 192 192
WIRE 192 208 192 192
WIRE 192 288 192 272
WIRE -96 304 -160 304
WIRE 48 304 48 160
WIRE 48 304 -16 304
FLAG 256 208 0
FLAG 256 144 VDD
FLAG 128 48 0
FLAG 128 -32 VDD
FLAG 192 288 0
FLAG -480 304 0
FLAG -480 224 IN1
FLAG -480 160 0
FLAG -480 80 IN2
FLAG -480 16 0
FLAG -480 -64 IN3
FLAG -480 -128 0
FLAG -480 -208 IN4
FLAG -160 304 IN1
FLAG -160 160 IN2
FLAG -160 16 IN3
FLAG -160 -128 IN4
FLAG 528 176 VOUTAC
IOPIN 528 176 Out
FLAG 528 112 VOUTDC
IOPIN 528 112 Out
SYMBOL OpAmps\\UniversalOpAmp3 256 176 R0
SYMATTR InstName U1
SYMBOL voltage 128 -48 R0
WINDOW 123 0 0 Left 0
WINDOW 39 0 0 Left 0
SYMATTR InstName V1
SYMATTR Value 5
SYMBOL res 304 32 R90
WINDOW 0 0 56 VBottom 2
WINDOW 3 32 56 VTop 2
SYMATTR InstName R1
SYMATTR Value 5k
SYMBOL res 0 -144 R90
WINDOW 0 0 56 VBottom 2
WINDOW 3 32 56 VTop 2
SYMATTR InstName R2
SYMATTR Value 10k
SYMBOL res 0 0 R90
WINDOW 0 0 56 VBottom 2
WINDOW 3 32 56 VTop 2
SYMATTR InstName R3
SYMATTR Value 10k
SYMBOL res 0 144 R90
WINDOW 0 0 56 VBottom 2
WINDOW 3 32 56 VTop 2
SYMATTR InstName R4
SYMATTR Value 10k
SYMBOL res 0 288 R90
WINDOW 0 -5 60 VBottom 2
WINDOW 3 32 56 VTop 2
SYMATTR InstName R5
SYMATTR Value 5K
SYMBOL voltage -480 208 R0
WINDOW 123 0 0 Left 0
WINDOW 39 0 0 Left 0
SYMATTR InstName V2
SYMATTR Value 3
SYMBOL voltage -480 64 R0
WINDOW 123 0 0 Left 0
WINDOW 39 0 0 Left 0
SYMATTR InstName V3
SYMATTR Value SINE(2 100m 100)
SYMBOL voltage -480 -80 R0
WINDOW 123 0 0 Left 0
WINDOW 39 0 0 Left 0
SYMATTR InstName V4
SYMATTR Value SINE(3 40m 46)
SYMBOL voltage -480 -224 R0
WINDOW 123 0 0 Left 0
WINDOW 39 0 0 Left 0
SYMATTR InstName V5
SYMATTR Value SINE(2.5 400m 4k)
SYMBOL cap 176 208 R0
SYMATTR InstName C1
SYMATTR Value 1p
SYMBOL cap 528 160 R90
WINDOW 0 0 32 VBottom 2
WINDOW 3 32 32 VTop 2
SYMATTR InstName C2
SYMATTR Value 1p
TEXT -96 400 Left 2 !.tran 1
